Circuit: * C:\Users\im\Desktop\Experiment 1\Draft1.asc

Direct Newton iteration for .op point succeeded.

Date: Sun Nov 15 13:52:33 2020
Total elapsed time: 3.112 seconds.

tnom = 27
temp = 27
method = modified trap
totiter = 1150979
traniter = 1150971
tranpoints = 237825
accept = 182006
rejected = 55819
matrix size = 14
fillins = 0
solver = Normal
Matrix Compiler1: 384 bytes object code size  0.2/0.1/[0.1]
Matrix Compiler2: off  [0.1]/0.1/0.1

