Circuit: * C:\Users\im\Desktop\Experiment 1\Draft1.asc

Direct Newton iteration for .op point succeeded.

Date: Sun Nov 15 13:58:05 2020
Total elapsed time: 0.346 seconds.

tnom = 27
temp = 27
method = modified trap
totiter = 96101
traniter = 96093
tranpoints = 20134
accept = 15429
rejected = 4705
matrix size = 14
fillins = 0
solver = Normal
Matrix Compiler1: 384 bytes object code size  0.2/0.1/[0.1]
Matrix Compiler2: 776 bytes object code size  0.2/0.2/[0.1]

