Circuit: * C:\Users\im\Desktop\Experiment 1\Draft1.asc

Direct Newton iteration failed to find .op point.  (Use ".option noopiter" to skip.)
Starting Gmin stepping
Gmin = 10
Gmin = 1.07374
Gmin = 0.115292
Gmin = 0.0123794
Gmin = 0.00132923
Gmin = 0.000142725
vernier = 0.5
vernier = 0.25
vernier = 0.125
vernier = 0.0625
vernier = 0.03125
vernier = 0.015625
vernier = 0.0078125
vernier = 0.00390625
vernier = 0.00195313
vernier = 0.000976563
Gmin = 0.000178406
vernier = 0.000488281
Gmin = 0
Gmin stepping failed

Starting source stepping with srcstepmethod=0
Source Step = 3.0303%
Source Step = 33.3333%
Source Step = 54.7348%
vernier = 0.015625
Source Step = 54.5691%
Starting source stepping with srcstepmethod=1
Source Step = 3.0303%
Source Step = 33.3333%
vernier = 0.25
Source Step = 31.3447%
vernier = 0.000976563
Source stepping failed

Pseudo Transient failed in finding the operating point at 25.0861 ms.
Trouble finding operating point....skipping operating point for Transient analysis.
Ignoring empty pin current: Ix(u1:vcc)

Date: Sun Nov 15 14:19:20 2020
Total elapsed time: 3.675 seconds.

tnom = 27
temp = 27
method = modified trap
totiter = 3174829
traniter = 14061
tranpoints = 3997
accept = 3132
rejected = 85646
matrix size = 10
fillins = 1
solver = Normal
Matrix Compiler1: 274 bytes object code size  0.2/0.1/[0.1]
Matrix Compiler2: off  [0.1]/0.2/0.2

