Circuit: * C:\Users\im\Desktop\Experiment 1\1.2\1.2.asc

Direct Newton iteration for .op point succeeded.

Date: Sun Nov 15 13:41:41 2020
Total elapsed time: 0.810 seconds.

tnom = 27
temp = 27
method = modified trap
totiter = 210870
traniter = 210862
tranpoints = 43486
accept = 33261
rejected = 10225
matrix size = 14
fillins = 0
solver = Normal
Matrix Compiler1: 384 bytes object code size  0.2/0.1/[0.1]
Matrix Compiler2: off  [0.1]/0.2/0.2

